123
BASE_TS_R-ax-S_2a.mol2_obabel_ClC#Cc1ccc_CC_cc1_tmp.xyz_to.mol2
C    -6.4324    -3.9140     0.2869
C    -5.1181    -4.0783     0.9153
C    -5.0364    -3.6201     2.3103
C    -6.0111    -2.8047     2.7913
C    -7.1559    -2.5287     1.9887
N    -7.3702    -3.1719     0.8131
H    -5.9353    -2.4214     3.7896
C    -6.7803    -4.5215    -1.0234
C    -8.1077    -4.9891    -1.2702
C    -8.4273    -5.4843    -2.5325
C    -6.2035    -5.0798    -3.3069
C    -7.4906    -5.5321    -3.5366
H    -9.4251    -5.8452    -2.7094
H    -7.7578    -5.9214    -4.5053
H    -5.4676    -5.1003    -4.0898
C    -5.8407    -4.5689    -2.0826
C    -9.1420    -5.0051    -0.2110
C   -10.3932    -4.4201    -0.4250
C    -8.9031    -5.6138     1.0248
C   -11.3609    -4.4465     0.5514
H   -10.5753    -3.9084    -1.3523
C    -9.8745    -5.6344     1.9983
H    -7.9403    -6.0584     1.2067
C   -11.1062    -5.0557     1.7640
H   -12.3168    -3.9803     0.3727
H    -9.6724    -6.1020     2.9487
H   -11.8642    -5.0715     2.5290
F    -4.5989    -4.0367    -1.9413
C    -3.8668    -3.9852     3.1650
H    -4.1105    -4.8156     3.8281
H    -3.0121    -4.2756     2.5528
H    -3.5537    -3.1374     3.7754
C    -9.2889    -1.3775     1.5576
C    -8.0843    -0.7823     3.6004
C   -10.5575    -1.5268     2.3924
H    -9.2755    -2.0674     0.7072
H    -9.2203    -0.3650     1.1522
C    -9.3950    -0.9563     4.3667
H    -7.2205    -1.0208     4.2248
H    -7.9666     0.2588     3.2880
H   -10.6735    -2.5591     2.7401
H   -11.4570    -1.2742     1.8164
H    -9.4937    -1.9837     4.7353
H    -9.4512    -0.2927     5.2388
N    -8.1079    -1.6199     2.3903
O   -10.5230    -0.6864     3.5407
I    -4.0937    -5.8887     0.4806
H    -4.4295    -3.1703     0.3545
C    -1.4986     4.0612    -1.9582
C    -2.1098     3.1033    -1.1705
C    -1.4896     1.8887    -0.9004
C    -0.2079     1.6407    -1.4774
C     0.3936     2.6392    -2.2710
C    -0.2485     3.8285    -2.5017
H    -2.0062     4.9918    -2.1589
H    -3.0941     3.2861    -0.7779
C    -2.1507     0.8598    -0.1063
C     0.4029     0.4060    -1.2597
H     1.3600     2.4491    -2.7079
H     0.2161     4.5803    -3.1197
C    -0.2459    -0.5810    -0.5040
C    -1.5169    -0.3886     0.0279
H     1.3674     0.1927    -1.6932
C    -3.4770     1.1565     0.4866
C    -4.6459     0.4905     0.0786
C    -3.5963     2.1829     1.5139
C    -5.8889     0.9298     0.5254
C    -4.8795     2.5440     2.0273
C    -2.4707     2.7834     2.0654
C    -6.0159     1.9175     1.5127
C    -4.9608     3.5128     3.0487
C    -2.5820     3.7250     3.0717
H    -1.4974     2.4855     1.7180
H    -6.9971     2.1813     1.8752
C    -3.8249     4.0892     3.5566
H    -5.9287     3.7863     3.4351
H    -1.6916     4.1692     3.4885
H    -3.8984     4.8216     4.3447
S    -2.4100    -1.6686     0.8838
O    -2.8588    -1.1059     2.1296
O    -1.6302    -2.8672     0.9631
S    -4.4520    -0.9285    -0.9984
O    -3.6752    -0.5032    -2.1239
O    -5.7300    -1.5199    -1.2542
N    -3.6524    -1.9814    -0.0864
C    -7.1150     0.8475    -0.3623
C    -8.0078     0.3132    -0.9934
C    -8.9622    -0.4381    -1.7170
C   -10.2943    -0.0562    -1.7976
C   -11.2017    -0.8184    -2.5025
C   -10.8046    -1.9803    -3.1479
C   -11.7821    -2.7868    -3.9493
C   -11.8038    -2.3873    -5.4158
C    -9.4723    -2.3559    -3.0750
C    -8.5680    -1.6052    -2.3572
H   -10.6108     0.8440    -1.2989
H   -12.2318    -0.5113    -2.5629
H   -12.7809    -2.6791    -3.5083
H   -11.5365    -3.8512    -3.8467
H   -10.8216    -2.5186    -5.8731
H   -12.5186    -2.9776    -5.9933
H   -12.0732    -1.3361    -5.5319
H    -9.1496    -3.2495    -3.5795
H    -7.5426    -1.9190    -2.2583
C     0.6842    -1.7181    -0.1302
C     1.2466    -2.7705     0.1053
C     1.8113    -4.0285     0.4094
C     3.1459    -4.3088     0.1480
C     3.6795    -5.5404     0.4608
C     2.8971    -6.5269     1.0424
C     3.5040    -7.8416     1.4322
C     4.2950    -7.7578     2.7284
C     1.5627    -6.2476     1.3044
C     1.0263    -5.0175     0.9881
H     3.7617    -3.5478    -0.3006
H     4.7180    -5.7449     0.2624
H     4.1464    -8.1918     0.6143
H     2.7100    -8.5942     1.5171
H     3.6600    -7.4361     3.5559
H     4.7370    -8.7175     3.0046
H     5.1073    -7.0330     2.6475
H     0.9472    -7.0019     1.7644
H    -0.0103    -4.7984     1.1840
