27
ClC#Cc1ccc(C(c2ccccc2))cc1
Cl 6.9496 -2.5624 -1.1328
C 5.4293 -1.7436 -0.7858
C 4.3932 -1.1851 -0.5493
C 3.1590 -0.5199 -0.2677
C 2.3396 -0.9737 0.7668
C 1.1336 -0.3236 1.0412
C 0.7325 0.7862 0.2830
C -0.5723 1.4911 0.5817
C -1.8023 0.6544 0.3113
C -2.6288 0.2405 1.3659
C -3.7658 -0.5297 1.1148
C -4.0888 -0.8934 -0.1910
C -3.2759 -0.4876 -1.2474
C -2.1391 0.2830 -0.9988
C 1.5637 1.2347 -0.7534
C 2.7703 0.5848 -1.0272
H 2.6290 -1.8349 1.3642
H 0.5029 -0.6932 1.8472
H -0.5533 1.8168 1.6301
H -0.6511 2.4158 -0.0051
H -2.3922 0.5143 2.3915
H -4.3996 -0.8466 1.9388
H -4.9733 -1.4941 -0.3854
H -3.5254 -0.7730 -2.2659
H -1.5120 0.5883 -1.8335
H 1.2769 2.0930 -1.3571
H 3.4002 0.9473 -1.8362
