23
ClC#Cc1ccc(C(C)(C))cc1
Cl 6.7631 -0.3808 -0.2505
C 5.0081 -0.2331 -0.2750
C 3.8119 -0.1324 -0.2918
C 2.3871 -0.0125 -0.3117
C 1.7865 1.1049 -0.8919
C 0.3936 1.2217 -0.9112
C -0.4180 0.2236 -0.3509
C -1.9291 0.3732 -0.3841
C -2.5875 -0.7460 -1.1945
C -2.5184 0.4445 1.0268
C 0.1995 -0.8950 0.2294
C 1.5924 -1.0124 0.2490
H 2.3937 1.8919 -1.3326
H -0.0529 2.1020 -1.3691
H -2.1750 1.3197 -0.8838
H -3.6664 -0.5764 -1.2789
H -2.4409 -1.7281 -0.7318
H -2.1748 -0.7899 -2.2086
H -3.5960 0.6367 0.9844
H -2.3690 -0.4884 1.5812
H -2.0561 1.2533 1.6037
H -0.3989 -1.6877 0.6729
H 2.0471 -1.8889 0.7046
