17
ClC#Cc1ccc(C)cc1
Cl 5.6978 -1.0542 0.0123
C 3.9674 -0.7330 0.0802
C 2.7878 -0.5141 0.1266
C 1.3828 -0.2533 0.1817
C 0.9172 0.9801 0.6402
C -0.4558 1.2344 0.6946
C -1.3746 0.2619 0.2813
C -2.8492 0.5230 0.3716
C -0.9002 -0.9782 -0.1637
C 0.4727 -1.2331 -0.2183
H 1.6155 1.7497 0.9604
H -0.8035 2.1978 1.0612
H -3.0673 1.5860 0.2243
H -3.3918 -0.0297 -0.4025
H -3.2237 0.2173 1.3533
H -1.5973 -1.7544 -0.4719
H 0.8222 -2.2002 -0.5718
