16
ClC#Cc1c([N+](=O)[O-])cccc1
Cl 4.8573 0.0474 -1.1464
C 3.1380 -0.0752 -0.7869
C 1.9660 -0.1635 -0.5409
C 0.5673 -0.2768 -0.2481
C -0.1974 0.7692 0.2827
N 0.3959 2.0699 0.5344
O 0.2858 2.5236 1.6817
O 0.9371 2.6461 -0.4182
C -1.5554 0.6043 0.5935
C -2.1633 -0.6274 0.3570
C -1.4191 -1.6786 -0.1803
C -0.0627 -1.5061 -0.4790
H -2.1368 1.4226 1.0137
H -3.2162 -0.7706 0.5911
H -1.8947 -2.6402 -0.3641
H 0.4980 -2.3446 -0.8899
