24
ClC#Cc1cc(c2ccccc2)ccc1
Cl -5.7723 3.1602 -0.0246
C -4.5017 1.9405 -0.0279
C -3.6357 1.1090 -0.0297
C -2.6037 0.1187 -0.0317
C -1.2603 0.5083 -0.0618
C -0.2294 -0.4475 -0.0669
C 1.1841 -0.0368 -0.0987
C 2.0591 -0.5291 -1.0815
C 3.4008 -0.1389 -1.1131
C 3.8908 0.7504 -0.1603
C 3.0409 1.2500 0.8230
C 1.6993 0.8597 0.8526
C -0.5874 -1.8059 -0.0408
C -1.9280 -2.1982 -0.0098
C -2.9361 -1.2359 -0.0054
H -1.0105 1.5676 -0.0938
H 1.6946 -1.2160 -1.8428
H 4.0605 -0.5283 -1.8841
H 4.9341 1.0541 -0.1842
H 3.4206 1.9421 1.5701
H 1.0558 1.2539 1.6367
H 0.1849 -2.5731 -0.0319
H -2.1836 -3.2545 0.0138
H -3.9768 -1.5502 0.0188
