27
ClC#Cc1ccc(OC(C)(C)C)cc1
Cl 7.0255 0.4948 -1.9293
C 5.3750 0.1886 -1.3962
C 4.2498 -0.0198 -1.0329
C 2.9095 -0.2674 -0.6004
C 1.9963 -0.8763 -1.4652
C 0.6878 -1.1194 -1.0410
C 0.2871 -0.7268 0.2346
O -0.9718 -1.0245 0.6698
C -1.9882 -0.0155 0.4649
C -3.2667 -0.6400 1.0503
C -1.6955 1.2819 1.2327
C -2.2375 0.2784 -1.0216
C 1.2062 -0.1596 1.1150
C 2.5152 0.0845 0.6931
H 2.2970 -1.1749 -2.4666
H -0.0124 -1.6192 -1.7039
H -3.5068 -1.5822 0.5437
H -4.1279 0.0303 0.9590
H -3.1301 -0.8848 2.1103
H -0.8354 1.8130 0.8114
H -1.4633 1.0727 2.2828
H -2.5499 1.9668 1.1984
H -2.3931 -0.6487 -1.5843
H -1.3858 0.7940 -1.4778
H -3.1168 0.9172 -1.1597
H 0.9094 0.0876 2.1301
H 3.2225 0.5387 1.3829
