30
ClC#Cc1c(CC(c2ccccc2))cccc1
Cl -1.8240 3.0464 -3.3381
C -2.1764 1.7650 -2.1829
C -2.4045 0.8900 -1.3931
C -2.6632 -0.1576 -0.4496
C -1.7071 -0.5406 0.5098
C -0.3450 0.1133 0.6037
C 0.6552 -0.5091 -0.3753
C 1.9943 0.1828 -0.3126
C 2.9969 -0.2821 0.5485
C 4.2274 0.3730 0.6182
C 4.4647 1.4993 -0.1677
C 3.4717 1.9728 -1.0233
C 2.2407 1.3193 -1.0948
C -2.0190 -1.5862 1.3960
C -3.2564 -2.2285 1.3366
C -4.1985 -1.8390 0.3890
C -3.9027 -0.8075 -0.5021
H 0.0323 0.0212 1.6313
H -0.4394 1.1938 0.4368
H 0.2775 -0.4643 -1.4047
H 0.7842 -1.5778 -0.1585
H 2.8257 -1.1580 1.1700
H 5.0012 0.0047 1.2865
H 5.4230 2.0087 -0.1128
H 3.6552 2.8521 -1.6351
H 1.4741 1.7025 -1.7650
H -1.2947 -1.9072 2.1423
H -3.4841 -3.0338 2.0306
H -5.1627 -2.3386 0.3419
H -4.6467 -0.5148 -1.2399
