35
ClC#Cc1c([Si](C)(C(C)(C)C)C)cccc1
Cl 2.3289 0.0948 -4.5276
C 2.2822 -0.1769 -2.7886
C 2.2422 -0.3603 -1.6025
C 2.2311 -0.6179 -0.1917
C 1.2472 -0.1164 0.6880
Si -0.2282 1.0043 0.1629
C 0.1697 2.1975 -1.2248
C -1.7859 -0.2297 -0.4491
C -2.1820 -1.1628 0.7135
C -1.3356 -1.0694 -1.6608
C -2.9880 0.6534 -0.8454
C -0.8632 2.0034 1.6390
C 1.3460 -0.4651 2.0553
C 2.3825 -1.2722 2.5299
C 3.3451 -1.7531 1.6533
C 3.2681 -1.4282 0.3009
H 0.2000 1.6985 -2.1958
H -0.5962 2.9772 -1.2839
H 1.1329 2.6874 -1.0538
H -2.5095 -0.5977 1.5929
H -3.0090 -1.8188 0.4184
H -1.3480 -1.8038 1.0193
H -0.4986 -1.7281 -1.4066
H -2.1543 -1.7062 -2.0155
H -1.0256 -0.4368 -2.4994
H -2.7347 1.3338 -1.6660
H -3.8304 0.0356 -1.1771
H -3.3376 1.2610 -0.0034
H -1.6663 2.6759 1.3236
H -0.0561 2.6098 2.0609
H -1.2537 1.3500 2.4236
H 0.6126 -0.1167 2.7809
H 2.4337 -1.5242 3.5862
H 4.1528 -2.3816 2.0184
H 4.0279 -1.8166 -0.3752
