24
ClC#Cc1cc(OC(C)C)ccc1
Cl 5.2666 1.7608 2.5202
C 4.0419 0.8311 1.6612
C 3.2065 0.1981 1.0757
C 2.2102 -0.5555 0.3781
C 0.9330 -0.0137 0.1850
C -0.0421 -0.7445 -0.4945
O -1.3245 -0.3482 -0.7504
C -1.7165 0.9961 -0.4543
C -2.8302 1.3539 -1.4363
C -2.2375 1.0819 0.9773
C 0.2701 -2.0225 -0.9684
C 1.5416 -2.5651 -0.7783
C 2.5143 -1.8297 -0.1048
H 0.7256 0.9734 0.5836
H -0.8980 1.7053 -0.6213
H -3.1933 2.3731 -1.2725
H -3.6740 0.6606 -1.3460
H -2.4677 1.2746 -2.4671
H -1.4589 0.8188 1.6998
H -3.0603 0.3759 1.1365
H -2.5929 2.0909 1.2085
H -0.4874 -2.6000 -1.4937
H 1.7699 -3.5588 -1.1546
H 3.5036 -2.2567 0.0417
