26
ClC#Cc1ccc(C(C)(C)C)cc1
Cl 6.9148 0.8739 -1.3551
C 5.1984 0.6572 -1.0248
C 4.0283 0.5095 -0.7997
C 2.6351 0.3337 -0.5315
C 2.0661 0.8841 0.6135
C 0.7021 0.7095 0.8719
C -0.1279 -0.0180 -0.0045
C -1.6241 -0.1889 0.3134
C -2.2988 1.1974 0.3964
C -1.7877 -0.9153 1.6660
C -2.3975 -1.0106 -0.7426
C 0.4712 -0.5631 -1.1527
C 1.8365 -0.3899 -1.4140
H 2.6729 1.4522 1.3145
H 0.2942 1.1548 1.7771
H -3.3742 1.1029 0.5876
H -2.1742 1.7534 -0.5404
H -1.8837 1.8131 1.2018
H -1.2920 -1.8932 1.6510
H -2.8458 -1.0812 1.9002
H -1.3619 -0.3436 2.4979
H -3.4562 -1.1044 -0.4725
H -2.3583 -0.5369 -1.7305
H -1.9978 -2.0272 -0.8349
H -0.1041 -1.1362 -1.8747
H 2.2647 -0.8267 -2.3134
