14
ClC#Cc1cc(F)ccc1
Cl 5.0148 -0.6998 -0.3356
C 3.2746 -0.4540 -0.2202
C 2.0884 -0.2859 -0.1417
C 0.6756 -0.0853 -0.0484
C -0.1473 -1.1125 0.4147
C -1.5192 -0.9010 0.4993
F -2.3105 -1.8862 0.9438
C -2.0848 0.3152 0.1308
C -1.2639 1.3424 -0.3321
C 0.1165 1.1421 -0.4217
H 0.2604 -2.0740 0.7107
H -3.1588 0.4532 0.2069
H -1.6961 2.2967 -0.6226
H 0.7503 1.9490 -0.7840
