26
ClC#Cc1cc(C(C)(C)C)ccc1
Cl 5.7408 1.9841 -1.9730
C 4.3671 1.0920 -1.3253
C 3.4306 0.4842 -0.8838
C 2.3145 -0.2393 -0.3579
C 1.0439 0.3484 -0.3409
C -0.0795 -0.3355 0.1701
C -1.4608 0.3434 0.1722
C -2.5873 -0.5341 0.7635
C -1.4021 1.6374 1.0124
C -1.8687 0.6950 -1.2749
C 0.1286 -1.6348 0.6630
C 1.3973 -2.2245 0.6472
C 2.4899 -1.5285 0.1375
H 0.9330 1.3573 -0.7340
H -3.5495 -0.0083 0.7432
H -2.7161 -1.4626 0.1952
H -2.3869 -0.7978 1.8086
H -1.0846 1.4261 2.0404
H -0.7025 2.3707 0.5965
H -2.3839 2.1229 1.0596
H -1.1789 1.4085 -1.7386
H -2.8664 1.1485 -1.3052
H -1.8900 -0.2005 -1.9073
H -0.6882 -2.2233 1.0722
H 1.5295 -3.2316 1.0352
H 3.4704 -1.9977 0.1308
