28
ClC#Cc1cc(OC(c2ccccc2))ccc1
Cl 6.3352 3.4183 1.1117
C 5.1659 2.3263 0.3755
C 4.3679 1.5822 -0.1256
C 3.4165 0.6958 -0.7224
C 2.0992 0.6631 -0.2479
C 1.1688 -0.2010 -0.8284
O -0.1430 -0.3357 -0.4671
C -0.6125 0.4793 0.6037
C -2.0708 0.1651 0.8280
C -3.0656 0.8701 0.1359
C -4.4143 0.5696 0.3345
C -4.7809 -0.4435 1.2186
C -3.8000 -1.1612 1.9004
C -2.4508 -0.8623 1.7033
C 1.5668 -1.0279 -1.8829
C 2.8786 -0.9971 -2.3573
C 3.8053 -0.1338 -1.7762
H 1.8276 1.3197 0.5722
H -0.0515 0.2711 1.5236
H -0.5045 1.5430 0.3566
H -2.7936 1.6540 -0.5675
H -5.1786 1.1220 -0.2057
H -5.8309 -0.6792 1.3700
H -4.0852 -1.9587 2.5816
H -1.6954 -1.4397 2.2316
H 0.8450 -1.7026 -2.3382
H 3.1746 -1.6455 -3.1779
H 4.8264 -0.1139 -2.1498
