21
ClC#Cc1ccc(OCC)cc1
Cl 6.6181 0.2938 -0.1070
C 4.8612 0.2291 -0.2124
C 3.6635 0.1845 -0.2839
C 2.2373 0.1312 -0.3688
C 1.5168 -0.7290 0.4617
C 0.1196 -0.7840 0.3819
C -0.5636 0.0190 -0.5312
O -1.9163 0.0723 -0.7130
C -2.7440 -0.8596 -0.0191
C -3.1599 -0.3087 1.3337
C 0.1643 0.8821 -1.3559
C 1.5585 0.9397 -1.2794
H 2.0339 -1.3616 1.1798
H -0.3990 -1.4586 1.0542
H -2.2891 -1.8535 0.0550
H -3.6445 -0.9878 -0.6307
H -2.2954 -0.1513 1.9854
H -3.6496 0.6638 1.2168
H -3.8521 -0.9927 1.8331
H -0.3610 1.5157 -2.0669
H 2.1015 1.6178 -1.9331
