26
ClC#Cc1cc([Si](C)(C)C)ccc1
Cl 6.1499 2.3330 -0.0438
C 4.7095 1.3199 -0.0755
C 3.7274 0.6296 -0.0971
C 2.5568 -0.1920 -0.1227
C 1.2899 0.3919 -0.0064
C 0.1296 -0.4032 -0.0299
Si -1.6104 0.3694 0.1271
C -2.4573 -0.3534 1.6403
C -1.5083 2.2338 0.3046
C -2.6001 -0.0549 -1.4124
C 0.2713 -1.7951 -0.1726
C 1.5370 -2.3742 -0.2884
C 2.6787 -1.5746 -0.2636
H 1.2206 1.4728 0.1026
H -3.4573 0.0740 1.7605
H -2.5590 -1.4388 1.5485
H -1.8817 -0.1372 2.5452
H -0.9401 2.5107 1.1977
H -1.0226 2.6832 -0.5668
H -2.5101 2.6647 0.3936
H -2.1086 0.3373 -2.3077
H -3.6030 0.3786 -1.3548
H -2.7027 -1.1385 -1.5231
H -0.6001 -2.4480 -0.1957
H 1.6320 -3.4516 -0.3982
H 3.6583 -2.0372 -0.3547
