27
ClC#Cc1cc(C(c2ccccc2))ccc1
Cl 5.0728 -2.4332 -3.0785
C 4.1129 -1.3921 -2.0312
C 3.4591 -0.6825 -1.3167
C 2.6796 0.1621 -0.4656
C 1.5285 -0.3370 0.1505
C 0.7529 0.4835 0.9856
C -0.4920 -0.0575 1.6526
C -1.6047 -0.4058 0.6902
C -2.2697 0.6006 -0.0257
C -3.2968 0.2782 -0.9141
C -3.6709 -1.0516 -1.0955
C -3.0185 -2.0604 -0.3895
C -1.9906 -1.7403 0.4993
C 1.1540 1.8108 1.1938
C 2.3042 2.3086 0.5793
C 3.0667 1.4856 -0.2497
H 1.2261 -1.3679 -0.0237
H -0.2090 -0.9372 2.2457
H -0.8817 0.6661 2.3808
H -1.9856 1.6429 0.1013
H -3.8029 1.0654 -1.4666
H -4.4698 -1.3019 -1.7884
H -3.3096 -3.0978 -0.5318
H -1.4920 -2.5411 1.0406
H 0.5709 2.4679 1.8358
H 2.6060 3.3396 0.7459
H 3.9600 1.8843 -0.7244
