27
ClC#Cc1cc(OC(C)(C)C)ccc1
Cl 5.6836 1.5546 -2.9783
C 4.4455 0.8223 -1.9620
C 3.6013 0.3227 -1.2698
C 2.5949 -0.2722 -0.4461
C 1.4615 0.4610 -0.0881
C 0.4740 -0.1311 0.6978
O -0.6022 0.6063 1.1009
C -1.7803 0.5523 0.2629
C -2.3829 -0.8578 0.1813
C -1.5314 1.1179 -1.1430
C -2.7941 1.4657 0.9736
C 0.6468 -1.4238 1.1892
C 1.7783 -2.1576 0.8328
C 2.7489 -1.5849 0.0085
H 1.3459 1.4913 -0.4124
H -1.7366 -1.5392 -0.3820
H -3.3580 -0.8464 -0.3182
H -2.5125 -1.2878 1.1807
H -2.4675 1.2204 -1.7030
H -0.8722 0.4672 -1.7272
H -1.0513 2.1014 -1.0911
H -2.3988 2.4836 1.0718
H -2.9906 1.1106 1.9922
H -3.7467 1.5156 0.4356
H -0.0944 -1.8590 1.8534
H 1.9090 -3.1702 1.2056
H 3.6296 -2.1631 -0.2616
