17
ClC#Cc1c(C(F)(F)F)cccc1
Cl 4.9242 -0.0600 0.6035
C 3.1739 -0.2164 0.4906
C 1.9804 -0.3242 0.4137
C 0.5563 -0.4593 0.3225
C -0.2848 0.6562 0.1702
C 0.2733 2.0555 0.0952
F 0.9678 2.4101 1.2119
F -0.6885 3.0125 -0.0526
F 1.1235 2.2319 -0.9542
C -1.6751 0.4493 0.0873
C -2.2131 -0.8366 0.1545
C -1.3716 -1.9344 0.3053
C 0.0081 -1.7472 0.3890
H -2.3504 1.2965 -0.0309
H -3.2893 -0.9808 0.0890
H -1.7885 -2.9373 0.3578
H 0.6538 -2.6157 0.5069
