17
ClC#Cc1cc(C(F)(F)F)ccc1
Cl 5.3509 -1.4041 0.2557
C 3.6997 -0.7923 0.2817
C 2.5740 -0.3750 0.2994
C 1.2336 0.1224 0.3206
C 0.1598 -0.7511 0.1280
C -1.1619 -0.2731 0.1469
C -2.3085 -1.2307 -0.0626
F -3.5325 -0.6342 -0.0245
F -2.2411 -1.8670 -1.2647
F -2.3432 -2.2136 0.8792
C -1.3858 1.0953 0.3624
C -0.3127 1.9670 0.5546
C 0.9951 1.4813 0.5338
H 0.3455 -1.8120 -0.0384
H -2.4010 1.4904 0.3816
H -0.4953 3.0263 0.7210
H 1.8234 2.1702 0.6849
