18
ClC#Cc1c(OC)cccc1
Cl 4.2506 -2.8656 -0.5613
C 2.6582 -2.1360 -0.3751
C 1.5715 -1.6416 -0.2483
C 0.2754 -1.0463 -0.0966
C 0.1241 0.3454 0.0423
O 1.2766 1.0895 0.0242
C 1.1513 2.4984 0.1629
C -1.1628 0.8763 0.1874
C -2.2805 0.0355 0.1941
C -2.1245 -1.3412 0.0562
C -0.8482 -1.8823 -0.0890
H 0.7115 2.7624 1.1302
H 0.5770 2.9271 -0.6649
H 2.1570 2.9283 0.1270
H -1.3331 1.9421 0.2979
H -3.2757 0.4591 0.3075
H -2.9947 -1.9926 0.0617
H -0.7338 -2.9586 -0.1963
