30
ClC#Cc1ccc(CC(c2ccccc2))cc1
Cl 8.1347 -1.4084 -1.9002
C 6.4824 -1.0201 -1.4298
C 5.3561 -0.7555 -1.1092
C 4.0145 -0.4404 -0.7273
C 3.2393 0.4025 -1.5255
C 1.9284 0.7102 -1.1527
C 1.3822 0.1811 0.0241
C -0.0406 0.4973 0.4164
C -1.0270 -0.5143 -0.1734
C -2.4488 -0.1974 0.2194
C -2.9952 -0.7257 1.3966
C -4.3041 -0.4162 1.7692
C -5.0765 0.4263 0.9718
C -4.5405 0.9613 -0.1981
C -3.2318 0.6531 -0.5726
C 2.1650 -0.6687 0.8167
C 3.4759 -0.9763 0.4437
H 3.6469 0.8248 -2.4410
H 1.3362 1.3666 -1.7869
H -0.1190 0.5167 1.5115
H -0.2903 1.5144 0.0865
H -0.7773 -1.5314 0.1565
H -0.9485 -0.5336 -1.2684
H -2.4041 -1.3827 2.0305
H -4.7213 -0.8324 2.6824
H -6.0956 0.6666 1.2625
H -5.1421 1.6196 -0.8194
H -2.8267 1.0804 -1.4870
H 1.7588 -1.0965 1.7308
H 4.0691 -1.6356 1.0729
