18
ClC#Cc1cc(OC)ccc1
Cl 5.6867 1.5938 -0.3064
C 4.0495 0.9572 -0.1769
C 2.9340 0.5222 -0.0883
C 1.6053 0.0039 0.0171
C 0.5074 0.8511 -0.1510
C -0.7961 0.3548 -0.0500
O -1.7779 1.2890 -0.2357
C -3.1230 0.8368 -0.1434
C -0.9936 -1.0002 0.2215
C 0.1038 -1.8499 0.3902
C 1.4020 -1.3495 0.2883
H 0.6572 1.9075 -0.3627
H -3.3406 0.4468 0.8564
H -3.7773 1.6970 -0.3148
H -3.3429 0.0922 -0.9156
H -1.9871 -1.4275 0.3083
H -0.0549 -2.9046 0.6015
H 2.2474 -2.0204 0.4215
