14
ClC#Cc1c(F)cccc1
Cl 4.9268 0.7008 -0.9168
C 3.2121 0.4543 -0.5989
C 2.0435 0.2830 -0.3837
C 0.6513 0.0813 -0.1262
C -0.1069 1.0704 0.5020
F 0.4601 2.2279 0.8747
C -1.4631 0.8790 0.7550
C -2.0744 -0.3160 0.3767
C -1.3255 -1.3123 -0.2524
C 0.0357 -1.1155 -0.5043
H -2.0324 1.6627 1.2450
H -3.1328 -0.4713 0.5716
H -1.8020 -2.2445 -0.5476
H 0.6076 -1.8998 -0.9951
