26
ClC#Cc1c(C(C)(C)C)cccc1
Cl 0.5486 4.4635 2.1626
C 0.8506 2.8897 1.4330
C 1.0515 1.8153 0.9347
C 1.3445 0.5401 0.3462
C 0.3578 -0.3583 -0.1344
C -1.1666 -0.0762 -0.0852
C -2.0325 -1.2230 -0.6769
C -1.5186 1.1786 -0.9143
C -1.6454 0.0938 1.3735
C 0.8321 -1.5730 -0.6841
C 2.1946 -1.8835 -0.7559
C 3.1374 -0.9883 -0.2791
C 2.7130 0.2166 0.2687
H -1.8025 -1.4004 -1.7342
H -3.1013 -0.9816 -0.6217
H -1.8915 -2.1618 -0.1284
H -2.6041 1.3269 -0.9636
H -1.1029 2.0988 -0.4994
H -1.1496 1.0859 -1.9426
H -1.2337 0.9796 1.8609
H -1.3671 -0.7750 1.9818
H -2.7363 0.1961 1.4211
H 0.1518 -2.3235 -1.0777
H 2.5117 -2.8300 -1.1871
H 4.1965 -1.2240 -0.3322
H 3.4619 0.9139 0.6408
