27
ClC#Cc1c(C(c2ccccc2))cccc1
Cl -0.8583 4.5432 0.5714
C -1.2868 2.8419 0.4198
C -1.5701 1.6804 0.3094
C -1.9031 0.2925 0.1798
C -1.1844 -0.5677 -0.6720
C -0.0047 -0.0958 -1.5004
C 1.2621 0.1622 -0.7135
C 1.8959 1.4117 -0.7854
C 3.0719 1.6548 -0.0734
C 3.6333 0.6499 0.7110
C 3.0210 -0.5994 0.7824
C 1.8443 -0.8438 0.0718
C -1.5743 -1.9178 -0.7515
C -2.6492 -2.3996 -0.0031
C -3.3522 -1.5414 0.8366
C -2.9807 -0.2002 0.9277
H 0.2299 -0.8357 -2.2776
H -0.3067 0.8027 -2.0545
H 1.4746 2.2096 -1.3930
H 3.5488 2.6297 -0.1309
H 4.5478 0.8401 1.2662
H 3.4584 -1.3847 1.3931
H 1.3820 -1.8257 0.1408
H -1.0362 -2.6067 -1.3998
H -2.9363 -3.4457 -0.0755
H -4.1888 -1.9147 1.4214
H -3.5382 0.4603 1.5885
