16
ClC#Cc1ccc([N+](=O)[O-])cc1
Cl 5.3317 -0.2247 1.7186
C 3.6570 -0.1541 1.1787
C 2.5151 -0.1060 0.8107
C 1.1552 -0.0487 0.3723
C 0.6897 1.0764 -0.3160
C -0.6392 1.1374 -0.7468
C -1.5002 0.0632 -0.4836
N -2.8969 0.1221 -0.9337
O -3.6249 -0.8484 -0.6815
O -3.2647 1.1389 -1.5391
C -1.0391 -1.0666 0.2058
C 0.2915 -1.1177 0.6322
H 1.3567 1.9118 -0.5215
H -0.9831 2.0211 -1.2809
H -1.6961 -1.9081 0.4173
H 0.6475 -1.9963 1.1674
