14
ClC#Cc1cc(Cl)ccc1
Cl 4.1356 -0.9056 -2.8203
C 2.7022 -0.5823 -1.8495
C 1.7249 -0.3616 -1.1879
C 0.5607 -0.0983 -0.4001
C 0.1654 -1.0036 0.5871
C -0.9712 -0.7376 1.3499
Cl -1.4614 -1.8510 2.5673
C -1.7149 0.4224 1.1356
C -1.3194 1.3263 0.1492
C -0.1820 1.0661 -0.6184
H 0.7377 -1.9109 0.7627
H -2.6005 0.6270 1.7318
H -1.8959 2.2322 -0.0218
H 0.1188 1.7768 -1.3854
