26
ClC#Cc1c([Si](C)(C)C)cccc1
Cl -0.4822 4.8397 0.8068
C 0.2669 3.2717 0.5235
C 0.7698 2.1985 0.3300
C 1.3953 0.9278 0.0998
C 0.6697 -0.2729 -0.0692
Si -1.2579 -0.3704 -0.0140
C -1.8413 -2.1439 -0.2816
C -1.8710 0.2000 1.6668
C -1.9834 0.6964 -1.3785
C 1.3976 -1.4630 -0.2901
C 2.7937 -1.4597 -0.3411
C 3.4943 -0.2720 -0.1733
C 2.7982 0.9149 0.0459
H -1.5136 -2.5181 -1.2559
H -2.9341 -2.1906 -0.2488
H -1.4489 -2.8039 0.4976
H -2.9547 0.0681 1.7408
H -1.6491 1.2564 1.8375
H -1.4023 -0.3826 2.4656
H -1.7620 1.7550 -1.2207
H -1.5801 0.4029 -2.3522
H -3.0711 0.5821 -1.4124
H 0.8936 -2.4178 -0.4272
H 3.3319 -2.3887 -0.5124
H 4.5802 -0.2678 -0.2127
H 3.3605 1.8377 0.1756
