24
ClC#Cc1ccc(OC(C)C)cc1
Cl 7.1658 -0.0384 -0.6033
C 5.4053 -0.0776 -0.5697
C 4.2052 -0.1041 -0.5463
C 2.7761 -0.1355 -0.5182
C 2.0880 0.2675 0.6275
C 0.6880 0.2381 0.6593
C -0.0305 -0.1916 -0.4559
O -1.3892 -0.2772 -0.5646
C -2.2112 0.2528 0.4802
C -2.4728 -0.8220 1.5313
C -3.5267 0.6768 -0.1698
C 0.6657 -0.5998 -1.5976
C 2.0624 -0.5716 -1.6335
H 2.6330 0.6050 1.5064
H 0.1972 0.5486 1.5750
H -1.7698 1.1488 0.9312
H -2.9201 -1.7128 1.0762
H -1.5419 -1.1494 2.0044
H -3.1440 -0.4544 2.3136
H -4.0103 -0.1693 -0.6707
H -4.2200 1.0916 0.5683
H -3.3432 1.4343 -0.9397
H 0.1131 -0.9419 -2.4697
H 2.5799 -0.8920 -2.5343
