14
ClC#Cc1ccc(F)cc1
Cl 4.7690 0.2640 -1.7382
C 3.1165 0.1725 -1.1359
C 1.9900 0.1102 -0.7253
C 0.6483 0.0359 -0.2363
C 0.3730 -0.6546 0.9490
C -0.9376 -0.7265 1.4256
C -1.9606 -0.1085 0.7146
F -3.2171 -0.1781 1.1726
C -1.6989 0.5805 -0.4646
C -0.3891 0.6537 -0.9432
H 1.1723 -1.1383 1.5060
H -1.1663 -1.2586 2.3435
H -2.5138 1.0549 -1.0021
H -0.1857 1.1930 -1.8656
