17
ClC#Cc1cc(C)ccc1
Cl 5.4990 0.2534 0.6568
C 3.7602 0.0052 0.5252
C 2.5750 -0.1639 0.4355
C 1.1630 -0.3651 0.3286
C 0.3036 0.7347 0.2464
C -1.0812 0.5473 0.1343
C -2.0049 1.7281 0.0804
C -1.5944 -0.7556 0.1309
C -0.7369 -1.8540 0.2128
C 0.6412 -1.6597 0.3093
H 0.7121 1.7431 0.2690
H -1.5250 2.5765 -0.4188
H -2.9116 1.4896 -0.4854
H -2.2887 2.0275 1.0939
H -2.6673 -0.9228 0.0635
H -1.1439 -2.8619 0.2041
H 1.2999 -2.5224 0.3733
